CPDS_validation_cosim/Distribution/Bus11/IEEE34Bus/ieee34-1_VLN_Node_844.Txt

LINE-GROUND and LINE-LINE VOLTAGES BY BUS & NODE

Bus       Node    VLN (kV)   Angle      pu     Base kV    Node-Node   VLL (kV)  Angle      pu

SOURCEBUS 1       41.829 /_    0.0      1.05    69.000        1-2      72.45 /_   30.0      1.05
   -      2       41.829 /_ -120.0      1.05    69.000        2-3      72.45 /_  -90.0      1.05
   -      3       41.829 /_  120.0      1.05    69.000        3-1      72.45 /_  150.0      1.05
800 ..... 1       15.095 /_  -30.0      1.05    24.900        1-2     26.145 /_    0.0      1.05
   -      2       15.095 /_ -150.0      1.05    24.900        2-3     26.145 /_ -120.0      1.05
   -      3       15.095 /_   90.0      1.05    24.900        3-1     26.145 /_  120.0      1.05
802 ..... 1       15.059 /_  -30.1    1.0475    24.900        1-2     26.098 /_    0.0    1.0481
   -      2       15.075 /_ -150.1    1.0486    24.900        2-3     26.107 /_ -120.1    1.0485
   -      3       15.071 /_   89.9    1.0484    24.900        3-1     26.094 /_  119.9     1.048
806 ..... 1       15.035 /_  -30.1    1.0459    24.900        1-2     26.066 /_   -0.1    1.0468
   -      2       15.063 /_ -150.1    1.0478    24.900        2-3     26.082 /_ -120.1    1.0475
   -      3       15.056 /_   89.9    1.0473    24.900        3-1     26.061 /_  119.9    1.0466
808 ..... 1       14.586 /_  -30.8    1.0146    24.900        1-2     25.488 /_   -0.5    1.0236
   -      2       14.846 /_ -150.8    1.0327    24.900        2-3     25.637 /_ -120.8    1.0296
   -      3       14.775 /_   89.3    1.0277    24.900        3-1     25.444 /_  119.0    1.0218
810 ..... 2       14.844 /_ -150.8    1.0325    24.900
812 ..... 1       14.065 /_  -31.7   0.97835    24.900        1-2     24.821 /_   -1.1   0.99682
   -      2       14.609 /_ -151.6    1.0162    24.900        2-3     25.132 /_ -121.7    1.0093
   -      3       14.442 /_   88.6    1.0046    24.900        3-1     24.727 /_  118.0   0.99306
814 ..... 1       13.651 /_  -32.5   0.94957    24.900        1-2     24.289 /_   -1.5   0.97546
   -      2        14.42 /_ -152.3    1.0031    24.900        2-3     24.731 /_ -122.4   0.99321
   -      3       14.177 /_   88.0   0.98616    24.900        3-1      24.16 /_  117.1   0.97028
814R .... 1       14.757 /_  -32.5    1.0265    24.900        1-2     25.474 /_   -2.5     1.023
   -      2       14.689 /_ -152.3    1.0218    24.900        2-3     25.421 /_ -122.1    1.0209
   -      3       14.707 /_   88.0     1.023    24.900        3-1     25.579 /_  117.8    1.0273
850 ..... 1       14.757 /_  -32.5    1.0265    24.900        1-2     25.474 /_   -2.5     1.023
   -      2       14.689 /_ -152.3    1.0218    24.900        2-3     25.421 /_ -122.1    1.0209
   -      3       14.707 /_   88.0     1.023    24.900        3-1     25.579 /_  117.8    1.0273
816 ..... 1       14.751 /_  -32.5    1.0261    24.900        1-2     25.466 /_   -2.5    1.0227
   -      2       14.686 /_ -152.3    1.0215    24.900        2-3     25.415 /_ -122.2    1.0207
   -      3       14.703 /_   88.0    1.0227    24.900        3-1      25.57 /_  117.8    1.0269
818 ..... 1       14.738 /_  -32.5    1.0252    24.900
824 ..... 1       14.625 /_  -32.7    1.0173    24.900        1-2     25.259 /_   -2.6    1.0144
   -      2       14.564 /_ -152.5    1.0131    24.900        2-3     25.209 /_ -122.4    1.0124
   -      3       14.578 /_   87.7     1.014    24.900        3-1     25.339 /_  117.6    1.0176
820 ..... 1         14.4 /_  -32.6    1.0017    24.900
822 ..... 1       14.356 /_  -32.6   0.99863    24.900
826 ..... 2       14.561 /_ -152.5    1.0129    24.900
828 ..... 1       14.615 /_  -32.7    1.0166    24.900        1-2     25.243 /_   -2.7    1.0138
   -      2       14.555 /_ -152.5    1.0125    24.900        2-3     25.193 /_ -122.4    1.0118
   -      3       14.567 /_   87.7    1.0133    24.900        3-1      25.32 /_  117.6    1.0169
830 ..... 1       14.366 /_  -33.0   0.99932    24.900        1-2     24.849 /_   -3.0   0.99795
   -      2        14.34 /_ -152.9   0.99751    24.900        2-3     24.803 /_ -122.9   0.99612
   -      3       14.313 /_   87.2   0.99563    24.900        3-1      24.86 /_  117.2   0.99838
854 ..... 1        14.36 /_  -33.0   0.99889    24.900        1-2     24.839 /_   -3.0   0.99757
   -      2       14.335 /_ -152.9   0.99714    24.900        2-3     24.794 /_ -122.9   0.99574
   -      3       14.307 /_   87.2   0.99519    24.900        3-1     24.848 /_  117.2   0.99792
832 ..... 1       15.061 /_  -33.5    1.0476    24.900        1-2     25.964 /_   -3.7    1.0427
   -      2        14.92 /_ -153.5    1.0379    24.900        2-3     25.928 /_ -123.6    1.0413
   -      3       14.988 /_   86.3    1.0426    24.900        3-1     25.997 /_  116.4     1.044
858 ..... 1       15.029 /_  -33.6    1.0454    24.900        1-2     25.914 /_   -3.8    1.0407
   -      2       14.893 /_ -153.6     1.036    24.900        2-3      25.88 /_ -123.7    1.0393
   -      3       14.955 /_   86.2    1.0402    24.900        3-1     25.935 /_  116.4    1.0416
834 ..... 1       14.992 /_  -33.7    1.0428    24.900        1-2     25.856 /_   -3.8    1.0384
   -      2       14.862 /_ -153.7    1.0338    24.900        2-3     25.824 /_ -123.8    1.0371
   -      3       14.916 /_   86.0    1.0376    24.900        3-1     25.863 /_  116.3    1.0387
860 ..... 1       14.985 /_  -33.7    1.0424    24.900        1-2     25.846 /_   -3.8     1.038
   -      2       14.856 /_ -153.7    1.0334    24.900        2-3     25.815 /_ -123.8    1.0367
   -      3       14.911 /_   86.0    1.0372    24.900        3-1     25.852 /_  116.3    1.0382
842 ..... 1       14.991 /_  -33.7    1.0428    24.900        1-2     25.855 /_   -3.8    1.0383
   -      2       14.861 /_ -153.7    1.0337    24.900        2-3     25.823 /_ -123.8    1.0371
   -      3       14.916 /_   86.0    1.0375    24.900        3-1     25.862 /_  116.2    1.0386
836 ..... 1       14.982 /_  -33.7    1.0422    24.900        1-2     25.839 /_   -3.8    1.0377
   -      2        14.85 /_ -153.7     1.033    24.900        2-3     25.808 /_ -123.8    1.0365
   -      3       14.909 /_   86.0    1.0371    24.900        3-1     25.847 /_  116.3     1.038
840 ..... 1       14.982 /_  -33.7    1.0422    24.900        1-2     25.839 /_   -3.8    1.0377
   -      2        14.85 /_ -153.7     1.033    24.900        2-3     25.807 /_ -123.8    1.0364
   -      3       14.909 /_   86.0     1.037    24.900        3-1     25.846 /_  116.3     1.038
862 ..... 1       14.982 /_  -33.7    1.0422    24.900        1-2     25.839 /_   -3.8    1.0377
   -      2        14.85 /_ -153.7     1.033    24.900        2-3     25.808 /_ -123.8    1.0365
   -      3       14.909 /_   86.0    1.0371    24.900        3-1     25.847 /_  116.3     1.038
844 ..... 1       14.988 /_  -33.7    1.0426    24.900        1-2     25.849 /_   -3.9    1.0381
   -      2       14.858 /_ -153.7    1.0335    24.900        2-3     25.818 /_ -123.8    1.0369
   -      3       14.912 /_   86.0    1.0373    24.900        3-1     25.856 /_  116.2    1.0384
846 ..... 1       14.992 /_  -33.8    1.0429    24.900        1-2     25.852 /_   -3.9    1.0383
   -      2       14.858 /_ -153.8    1.0335    24.900        2-3     25.822 /_ -123.8     1.037
   -      3       14.916 /_   85.9    1.0375    24.900        3-1     25.862 /_  116.2    1.0386
848 ..... 1       14.993 /_  -33.8    1.0429    24.900        1-2     25.853 /_   -3.9    1.0383
   -      2       14.858 /_ -153.8    1.0336    24.900        2-3     25.823 /_ -123.9    1.0371
   -      3       14.916 /_   85.9    1.0376    24.900        3-1     25.863 /_  116.2    1.0387
852R .... 1       15.061 /_  -33.5    1.0476    24.900        1-2     25.964 /_   -3.7    1.0427
   -      2       14.921 /_ -153.5    1.0379    24.900        2-3     25.928 /_ -123.6    1.0413
   -      3       14.988 /_   86.3    1.0426    24.900        3-1     25.997 /_  116.4    1.0441
888 ..... 1       2.4292 /_  -35.1    1.0114     4.160        1-2     4.1872 /_   -5.2    1.0065
   -      2       2.4055 /_ -155.1    1.0016     4.160        2-3     4.1809 /_ -125.1     1.005
   -      3       2.4173 /_   84.7    1.0065     4.160        3-1     4.1929 /_  114.9    1.0079
856 ..... 2       14.334 /_ -152.9   0.99705    24.900
852 ..... 1       13.931 /_  -33.5   0.96903    24.900        1-2     24.156 /_   -3.5   0.97012
   -      2       13.962 /_ -153.5   0.97122    24.900        2-3     24.122 /_ -123.7   0.96875
   -      3       13.863 /_   86.3   0.96434    24.900        3-1     24.047 /_  116.5   0.96573
864 ..... 1       15.029 /_  -33.6    1.0454    24.900
838 ..... 2       14.848 /_ -153.7    1.0328    24.900
890 ..... 1       2.2304 /_  -35.6   0.92863     4.160        1-2     3.8676 /_   -5.9   0.92972
   -      2       2.2259 /_ -156.1   0.92679     4.160        2-3     3.8506 /_ -126.1   0.92561
   -      3       2.2193 /_   83.9   0.92402     4.160        3-1     3.8442 /_  114.2   0.92409
